This is the run directory for the revised GEOS-Chem used for the OA simulation performed by Chen et al. (2024).
The model outputs used in the analysis are available at https://disk.pku.edu.cn/link/AA03DF14A7E715450BB628921DD9100516.

----------------------------------------------------
Instructions on setting up, compiling, and running GEOS-Chem:
----------------------------------------------------

http://wiki.geos-chem.org/Getting_Started_with_GEOS-Chem


----------------------------------------------------
For additional information about GEOS-Chem, see:
----------------------------------------------------

http://wiki.geos-chem.org/GEOS-Chem_overview	

http://wiki.geos-chem.org/GEOS-Chem_basics


----------------------------------------------------
For help with GEOS-Chem, see:
----------------------------------------------------

http://wiki.geos-chem.org/Guide_to_GEOS-Chem_error_messages

http://wiki.geos-chem.org/Submitting_GEOS-Chem_support_requests
